Circuit: * C:\Users\Wyatt\Documents\School\EE431\Lab0\Draft1.asc

Warning: Multiple definitions of model "2scr375p" Type: BJT
Warning: Multiple definitions of model "bc857b" Type: BJT
Warning: Multiple definitions of model "bc847c" Type: BJT
Warning: Multiple definitions of model "bc847b" Type: BJT
Direct Newton iteration for .op point succeeded.

Date: Thu Oct 17 10:34:02 2024
Total elapsed time: 0.085 seconds.

tnom = 27
temp = 27
method = modified trap
totiter = 2694
traniter = 2687
tranpoints = 1191
accept = 1123
rejected = 68
matrix size = 18
fillins = 0
solver = Normal
Avg thread counts: 2.0/3.3/3.3/2.0
Matrix Compiler1: 1.15 KB object code size  0.3/0.3/[0.2]
Matrix Compiler2: 1.43 KB object code size  0.2/0.3/[0.2]

