Circuit: * C:\Users\Wyatt\Documents\School\EE431\Lab0\Lab 0 Inverter Capacitance.asc

Instance "m:x1:1": Length shorter than recommended for a level 1 MOSFET.
Instance "m:x1:1": Width narrower than recommended for a level 1 MOSFET.
Direct Newton iteration for .op point succeeded.
.step c1=1e-12
.step c1=1.1e-11
.step c1=2.1e-11
.step c1=3.1e-11
.step c1=4.1e-11
.step c1=5.1e-11

Date: Fri Oct  4 14:55:41 2024
Total elapsed time: 0.828 seconds.

tnom = 27
temp = 27
method = modified trap
totiter = 2407
traniter = 2398
tranpoints = 1195
accept = 1164
rejected = 31
matrix size = 5
fillins = 0
solver = Normal
Avg thread counts: 2.1/3.3/3.3/2.1
Matrix Compiler1:       8 opcodes  0.2/0.2/[0.1]
Matrix Compiler2: 335 bytes object code size  0.1/0.1/[0.1]

